Circuit: * C:\Users\brass\Desktop\sulautetut järjestelmät\analog_input.asc


Date: Tue Jan 17 13:18:07 2023
Total elapsed time: 0.049 seconds.

tnom = 27
temp = 27
method = trap
totiter = 311
traniter = 0
tranpoints = 0
accept = 0
rejected = 0
matrix size = 38
fillins = 27
solver = Normal
Matrix Compiler1: 3.00 KB object code size  0.5/0.3/[0.2]
Matrix Compiler2: 3.51 KB object code size  0.2/0.3/[0.2]

