Circuit: * C:\Users\brass\Desktop\sulautetut järjestelmät\DC-operating-point.asc

Direct Newton iteration for .op point succeeded.

Date: Wed Jan 25 18:31:39 2023
Total elapsed time: 0.026 seconds.

tnom = 27
temp = 27
method = trap
totiter = 3
traniter = 0
tranpoints = 0
accept = 0
rejected = 0
matrix size = 6
fillins = 0
solver = Normal
Matrix Compiler1: 200 bytes object code size
Matrix Compiler2: 394 bytes object code size
