Circuit: * C:\Users\brass\Desktop\sulautetut järjestelmät\DC-sweep.asc

.OP point found by inspection.

Date: Wed Jan 25 18:36:37 2023
Total elapsed time: 0.028 seconds.

tnom = 27
temp = 27
method = trap
totiter = 200
traniter = 0
tranpoints = 0
accept = 0
rejected = 0
matrix size = 2
fillins = 0
solver = Normal
Matrix Compiler1: off  [0.0]/0.0/0.0
Matrix Compiler2: 96 bytes object code size  0.0/0.0/[0.0]

