Circuit: * C:\Users\brass\Desktop\sulautetut järjestelmät\digital_input.asc

Direct Newton iteration for .op point succeeded.

Date: Tue Jan 17 21:14:41 2023
Total elapsed time: 0.064 seconds.

tnom = 27
temp = 27
method = modified trap
totiter = 5049
traniter = 5022
tranpoints = 2427
accept = 2342
rejected = 85
matrix size = 9
fillins = 0
solver = Normal
Matrix Compiler1: 260 bytes object code size  0.1/0.0/[0.0]
Matrix Compiler2: off  [0.1]/0.1/0.1

