Circuit: * C:\Users\brass\Desktop\sulautetut järjestelmät\Draft3.asc

Direct Newton iteration for .op point succeeded.

Date: Tue Jan 24 12:52:33 2023
Total elapsed time: 1.154 seconds.

tnom = 27
temp = 27
method = modified trap
totiter = 480249
traniter = 480242
tranpoints = 98812
accept = 72753
rejected = 26059
matrix size = 11
fillins = 0
solver = Normal
Matrix Compiler1: 414 bytes object code size  0.1/0.1/[0.1]
Matrix Compiler2: off  [0.1]/0.1/0.1

