Circuit: * C:\Users\brass\Desktop\sulautetut järjestelmät\sulautetut_jarjestelmat\Draft4.asc

Direct Newton iteration for .op point succeeded.

Date: Thu Jan 26 12:17:52 2023
Total elapsed time: 0.049 seconds.

tnom = 27
temp = 27
method = modified trap
totiter = 11991
traniter = 11986
tranpoints = 4036
accept = 3361
rejected = 675
matrix size = 9
fillins = 0
solver = Normal
Matrix Compiler1:      18 opcodes  0.1/[0.1]/0.1
Matrix Compiler2: off  [0.1]/0.1/0.1

