Circuit: * C:\Users\brass\Desktop\sulautetut järjestelmät\Draft8.asc


Date: Wed Jan 25 18:57:48 2023
Total elapsed time: 0.025 seconds.

tnom = 27
temp = 27
method = trap
totiter = 0
traniter = 0
tranpoints = 0
accept = 0
rejected = 0
matrix size = 4
fillins = 1
solver = Normal

