Circuit: * C:\Users\brass\Desktop\sulautetut järjestelmät\Draft7.asc

.OP point found by inspection.

Date: Wed Jan 25 18:48:14 2023
Total elapsed time: 0.027 seconds.

tnom = 27
temp = 27
method = modified trap
totiter = 434
traniter = 434
tranpoints = 218
accept = 218
rejected = 0
matrix size = 2
fillins = 0
solver = Normal
Matrix Compiler1:       2 opcodes  0.0/[0.0]/0.0
Matrix Compiler2: off  [0.0]/0.1/0.0

