Circuit: * C:\Users\brass\Desktop\sulautetut järjestelmät\Draft1.asc

.OP point found by inspection.

Date: Fri Jan 20 08:42:40 2023
Total elapsed time: 0.024 seconds.

tnom = 27
temp = 27
method = modified trap
totiter = 848
traniter = 848
tranpoints = 425
accept = 424
rejected = 1
matrix size = 6
fillins = 0
solver = Normal
Matrix Compiler1: 236 bytes object code size  0.1/0.1/[0.0]
Matrix Compiler2: off  [0.0]/0.0/0.0

