Circuit: * C:\Users\brass\Desktop\sulautetut järjestelmät\Draft4.asc

Direct Newton iteration for .op point succeeded.

Date: Tue Jan 24 13:59:47 2023
Total elapsed time: 0.045 seconds.

tnom = 27
temp = 27
method = modified trap
totiter = 12547
traniter = 12542
tranpoints = 4163
accept = 3457
rejected = 706
matrix size = 9
fillins = 0
solver = Normal
Matrix Compiler1: 296 bytes object code size  0.1/0.1/[0.0]
Matrix Compiler2: off  [0.1]/0.1/0.1

