Circuit: * C:\Users\brass\Desktop\sulautetut\Draft2.asc

.OP point found by inspection.

Date: Thu Jan 12 15:58:59 2023
Total elapsed time: 0.054 seconds.

tnom = 27
temp = 27
method = modified trap
totiter = 4600
traniter = 4600
tranpoints = 2301
accept = 2247
rejected = 54
matrix size = 3
fillins = 0
solver = Normal
Matrix Compiler1: 50 bytes object code size  0.0/0.0/[0.0]
Matrix Compiler2: 175 bytes object code size  0.0/0.0/[0.0]

