Circuit: * C:\Users\ja\Desktop\Inverting_and_LIB\Inverterting.asc

Direct Newton iteration for .op point succeeded.

Date: Fri Dec 19 15:18:32 2014
Total elapsed time: 0.210 seconds.

tnom = 27
temp = 27
method = modified trap
totiter = 295
traniter = 284
tranpoints = 112
accept = 91
rejected = 21
matrix size = 38
fillins = 29
solver = Normal
Matrix Compiler1: 2,96 KB object code size  1.9/1.1/[0.4]
Matrix Compiler2: 3,52 KB object code size  0.7/1.1/[0.6]


